# generated using pymatgen
data_MnPS3
_symmetry_space_group_name_H-M   'P 1'
_cell_length_a   6.07621830
_cell_length_b   10.51460754
_cell_length_c   7.05287146
_cell_angle_alpha   90.00000000
_cell_angle_beta   106.47939396
_cell_angle_gamma   90.00000000
_symmetry_Int_Tables_number   1
_chemical_formula_structural   MnPS3
_chemical_formula_sum   'Mn4 P4 S12'
_cell_volume   432.09138133
_cell_formula_units_Z   4
loop_
 _symmetry_equiv_pos_site_id
 _symmetry_equiv_pos_as_xyz
  1  'x, y, z'
loop_
 _atom_type_symbol
 _atom_type_oxidation_number
  Mn2+  2.0
  P4+  4.0
  S2-  -2.0
loop_
 _atom_site_type_symbol
 _atom_site_label
 _atom_site_symmetry_multiplicity
 _atom_site_fract_x
 _atom_site_fract_y
 _atom_site_fract_z
 _atom_site_occupancy
  Mn2+  Mn0  1  0.50000000  0.83322886  0.00000000  1
  Mn2+  Mn1  1  0.50000000  0.16677114  0.00000000  1
  Mn2+  Mn2  1  0.00000000  0.33322886  0.00000000  1
  Mn2+  Mn3  1  0.00000000  0.66677114  0.00000000  1
  P4+  P4  1  0.94622837  0.00000000  0.83779508  1
  P4+  P5  1  0.05377163  0.00000000  0.16220492  1
  P4+  P6  1  0.44622837  0.50000000  0.83779508  1
  P4+  P7  1  0.55377163  0.50000000  0.16220492  1
  S2-  S8  1  0.75945976  0.16131807  0.76089813  1
  S2-  S9  1  0.24054024  0.16131807  0.23910187  1
  S2-  S10  1  0.75642071  0.00000000  0.23907174  1
  S2-  S11  1  0.24357929  0.00000000  0.76092826  1
  S2-  S12  1  0.24054024  0.83868193  0.23910187  1
  S2-  S13  1  0.75945976  0.83868193  0.76089813  1
  S2-  S14  1  0.25945976  0.66131807  0.76089813  1
  S2-  S15  1  0.74054024  0.66131807  0.23910187  1
  S2-  S16  1  0.25642071  0.50000000  0.23907174  1
  S2-  S17  1  0.74357929  0.50000000  0.76092826  1
  S2-  S18  1  0.74054024  0.33868193  0.23910187  1
  S2-  S19  1  0.25945976  0.33868193  0.76089813  1
